APIs/Test_Systems/European_LV_Test_Feeder-G/lvtest_VLN.Txt

SYMMETRICAL COMPONENT VOLTAGES BY BUS (for 3-phase buses)

Bus        Mag:   V1 (kV)    p.u.     V2 (kV)   %V2/V1    V0 (kV)    %V0/V1

sourcebus     6.665      1.049  0.0006276   0.009417 4.344E-010 6.517E-009
1            0.2518      1.048  9.172E-005    0.03643 6.649E-005   0.02641
2            0.2517      1.048  9.293E-005    0.03692 6.957E-005   0.02764
3            0.2517      1.048  9.306E-005    0.03697 7.002E-005   0.02782
4            0.2517      1.048  9.319E-005    0.03702 7.046E-005   0.02799
5            0.2517      1.048  9.33E-005    0.03707 7.086E-005   0.02815
6            0.2517      1.048  9.348E-005    0.03714 7.152E-005   0.02841
7            0.2513      1.046   0.000111    0.04415 0.0001587   0.06316
8            0.2513      1.046   0.000112    0.04455 0.0001635   0.06505
9            0.2513      1.046  0.0001128    0.04488 0.0001675   0.06664
10           0.2513      1.046  0.0001135    0.04517  0.000171   0.06804
11           0.2513      1.046  0.0001141     0.0454 0.0001736   0.06908
12           0.2513      1.046  0.0001146    0.04561 0.0001761   0.07007
13           0.2513      1.046  0.0001149    0.04574 0.0001776   0.07067
14           0.2513      1.046  0.0001157    0.04606 0.0001814   0.07219
15           0.2512      1.046  0.0001226    0.04881 0.0002125   0.08461
17            0.251      1.045  0.0001315    0.05238 0.0002509   0.09995
19            0.251      1.045  0.0001321    0.05263 0.0002536     0.101
21            0.251      1.045  0.0001328    0.05292 0.0002566    0.1022
23            0.251      1.045   0.000134    0.05339 0.0002614    0.1042
25            0.251      1.045  0.0001361    0.05425 0.0002703    0.1077
28           0.2506      1.043  0.0001613    0.06436 0.0003446    0.1375
32           0.2505      1.043  0.0001681    0.06709 0.0003652    0.1458
37           0.2502      1.042  0.0001811    0.07236 0.0004241    0.1695
43           0.2502      1.042  0.0001811    0.07236 0.0004241    0.1695
49           0.2502      1.042  0.0001811    0.07236 0.0004241    0.1695
55           0.2502      1.042  0.0001811    0.07236 0.0004241    0.1695
61           0.2502      1.042  0.0001811    0.07236 0.0004241    0.1695
68           0.2502      1.042  0.0001811    0.07236 0.0004241    0.1695
76           0.2502      1.042  0.0001811    0.07236 0.0004241    0.1695
81           0.2502      1.042  0.0001811    0.07236 0.0004241    0.1695
86           0.2502      1.042  0.0001811    0.07236 0.0004241    0.1695
90           0.2502      1.042  0.0001811    0.07236 0.0004241    0.1695
93           0.2502      1.042  0.0001811    0.07236 0.0004241    0.1695
96           0.2502      1.042  0.0001811    0.07236 0.0004241    0.1695
99           0.2502      1.042  0.0001811    0.07236 0.0004241    0.1695
102          0.2502      1.042  0.0001811    0.07236 0.0004241    0.1695
106          0.2502      1.042  0.0001811    0.07236 0.0004241    0.1695
109          0.2502      1.042  0.0001811    0.07236 0.0004241    0.1695
112          0.2502      1.042  0.0001811    0.07236 0.0004241    0.1695
115          0.2502      1.042  0.0001811    0.07236 0.0004241    0.1695
119          0.2502      1.042  0.0001811    0.07236 0.0004241    0.1695
124          0.2502      1.042  0.0001811    0.07236 0.0004241    0.1695
129          0.2502      1.042  0.0001811    0.07236 0.0004241    0.1695
135          0.2502      1.042  0.0001811    0.07236 0.0004241    0.1695
141          0.2502      1.042  0.0001811    0.07236 0.0004241    0.1695
147          0.2502      1.042  0.0001811    0.07236 0.0004241    0.1695
154          0.2502      1.042  0.0001811    0.07236 0.0004241    0.1695
161          0.2502      1.042  0.0001811    0.07236 0.0004241    0.1695
169          0.2502      1.042  0.0001811    0.07236 0.0004241    0.1695
42           0.2501      1.041  0.0001906    0.07624 0.0004651     0.186
48           0.2499      1.041  0.0001981    0.07927 0.0004961    0.1985
54           0.2499      1.041  0.0001981    0.07927 0.0004961    0.1985
60           0.2499      1.041  0.0001981    0.07927 0.0004961    0.1985
67           0.2499      1.041  0.0001981    0.07927 0.0004961    0.1985
75           0.2499      1.041  0.0001981    0.07927 0.0004961    0.1985
80           0.2499      1.041  0.0001981    0.07927 0.0004961    0.1985
85           0.2499      1.041  0.0001981    0.07927 0.0004961    0.1985
89           0.2499      1.041  0.0001981    0.07927 0.0004961    0.1985
53           0.2499       1.04  0.0001992    0.07971 0.0005006    0.2003
59           0.2498       1.04  0.0002042    0.08174 0.0005208    0.2085
66           0.2498       1.04  0.0002149    0.08604 0.0005455    0.2184
74           0.2498       1.04   0.000218    0.08729 0.0005516    0.2209
73           0.2498       1.04   0.000218    0.08729 0.0005516    0.2209
65           0.2498       1.04  0.0002049    0.08204 0.0005229    0.2093
72           0.2496      1.039  0.0002135    0.08555 0.0005469    0.2191
79           0.2495      1.039  0.0002165    0.08677 0.0005554    0.2226
84           0.2495      1.039  0.0002171    0.08704 0.0005572    0.2234
88           0.2494      1.039  0.0002185    0.08758  0.000561    0.2249
92           0.2494      1.038  0.0002197    0.08809 0.0005645    0.2263
95           0.2494      1.038  0.0002204    0.08839 0.0005666    0.2272
98           0.2494      1.038  0.0002209    0.08859 0.0005679    0.2277
101          0.2494      1.038  0.0002216    0.08886 0.0005698    0.2285
105          0.2494      1.038   0.000222    0.08902 0.0005716    0.2292
108          0.2493      1.038  0.0002222    0.08911 0.0005726    0.2296
111          0.2491      1.037  0.0002312    0.09282 0.0006126    0.2459
114          0.2491      1.037  0.0002322     0.0932 0.0006166    0.2475
118          0.2491      1.037  0.0002361    0.09481 0.0006333    0.2543
123          0.2489      1.037  0.0002434    0.09779 0.0006636    0.2666
128          0.2489      1.036  0.0002468    0.09915 0.0006773    0.2721
134          0.2489      1.036  0.0002478    0.09956 0.0006814    0.2738
140          0.2489      1.036  0.0002489        0.1  0.000686    0.2756
146          0.2489      1.036    0.00025     0.1005 0.0006904    0.2774
153          0.2488      1.036  0.0002513      0.101 0.0006954    0.2795
160          0.2488      1.036  0.0002516     0.1011 0.0006969    0.2801
168          0.2488      1.036  0.0002537      0.102 0.0007052    0.2834
177          0.2488      1.036  0.0002548     0.1024 0.0007099    0.2853
186          0.2488      1.036  0.0002557     0.1028 0.0007134    0.2868
195          0.2488      1.036  0.0002565     0.1031 0.0007166     0.288
205          0.2488      1.036  0.0002575     0.1035 0.0007205    0.2896
215          0.2487      1.036  0.0002593     0.1042 0.0007277    0.2926
224          0.2487      1.036  0.0002609     0.1049  0.000734    0.2951
232          0.2487      1.035  0.0002619     0.1053 0.0007383    0.2969
240          0.2487      1.035  0.0002627     0.1056 0.0007411     0.298
247          0.2487      1.035  0.0002642     0.1062 0.0007472    0.3005
256          0.2486      1.035   0.000265     0.1066 0.0007502    0.3017
263          0.2486      1.035   0.000268     0.1078 0.0007614    0.3063
272          0.2486      1.035  0.0002694     0.1084 0.0007665    0.3084
280          0.2485      1.035  0.0002747     0.1105 0.0007851    0.3159
288          0.2485      1.035  0.0002744     0.1104 0.0007839    0.3154
297          0.2485      1.035  0.0002734       0.11 0.0007787    0.3134
304          0.2485      1.035  0.0002731     0.1099 0.0007776     0.313
311          0.2485      1.035   0.000273     0.1099 0.0007772    0.3128
319          0.2485      1.034   0.000273     0.1099  0.000777    0.3127
326          0.2485      1.034   0.000273     0.1099 0.0007769    0.3127
333          0.2485      1.034  0.0002729     0.1098 0.0007767    0.3126
340          0.2485      1.034  0.0002729     0.1098 0.0007765    0.3125
347          0.2485      1.034  0.0002729     0.1098 0.0007764    0.3125
353          0.2485      1.034  0.0002728     0.1098 0.0007763    0.3124
358          0.2485      1.034  0.0002728     0.1098 0.0007762    0.3124
363          0.2485      1.034  0.0002728     0.1098 0.0007761    0.3124
368          0.2485      1.034  0.0002728     0.1098  0.000776    0.3123
373          0.2485      1.034  0.0002726     0.1097 0.0007753    0.3121
379          0.2484      1.034  0.0002702     0.1088 0.0007731    0.3112
386          0.2484      1.034  0.0002702     0.1088 0.0007731    0.3112
393          0.2484      1.034  0.0002702     0.1088 0.0007731    0.3112
399          0.2484      1.034  0.0002702     0.1088 0.0007731    0.3112
405          0.2484      1.034  0.0002702     0.1088 0.0007731    0.3112
412          0.2484      1.034  0.0002702     0.1088 0.0007731    0.3112
418          0.2484      1.034  0.0002702     0.1088 0.0007731    0.3112
424          0.2484      1.034  0.0002702     0.1088 0.0007731    0.3112
431          0.2484      1.034  0.0002702     0.1088 0.0007731    0.3112
438          0.2484      1.034  0.0002702     0.1088 0.0007731    0.3112
445          0.2484      1.034  0.0002702     0.1088 0.0007731    0.3112
452          0.2484      1.034  0.0002702     0.1088 0.0007731    0.3112
459          0.2484      1.034  0.0002702     0.1088 0.0007731    0.3112
466          0.2484      1.034  0.0002702     0.1088 0.0007731    0.3112
474          0.2484      1.034  0.0002702     0.1088 0.0007731    0.3112
481          0.2484      1.034  0.0002702     0.1088 0.0007731    0.3112
489          0.2484      1.034  0.0002702     0.1088 0.0007731    0.3112
498          0.2484      1.034  0.0002702     0.1088 0.0007731    0.3112
507          0.2484      1.034  0.0002702     0.1088 0.0007731    0.3112
385          0.2484      1.034  0.0002552     0.1027 0.0007594    0.3057
392          0.2484      1.034  0.0002497     0.1005 0.0007544    0.3037
398          0.2484      1.034  0.0002492     0.1003 0.0007539    0.3035
404          0.2484      1.034  0.0002488     0.1001 0.0007535    0.3033
411          0.2484      1.034  0.0002484    0.09998 0.0007531    0.3032
417          0.2484      1.034  0.0002467     0.0993 0.0007516    0.3025
423          0.2484      1.034  0.0002463    0.09913 0.0007512    0.3024
430          0.2484      1.034  0.0002459    0.09897 0.0007509    0.3023
437          0.2484      1.034  0.0002455    0.09882 0.0007505    0.3021
444          0.2484      1.034   0.000245    0.09863 0.0007501    0.3019
451          0.2484      1.034  0.0002435    0.09801 0.0007487    0.3014
458          0.2484      1.034  0.0002359    0.09496 0.0007418    0.2986
378          0.2484      1.034  0.0002731       0.11 0.0007751     0.312
384          0.2484      1.034  0.0002736     0.1102 0.0007749     0.312
391          0.2484      1.034  0.0002737     0.1102 0.0007749     0.312
397          0.2484      1.034  0.0002765     0.1113 0.0007822    0.3149
403          0.2483      1.034  0.0002779     0.1119 0.0007857    0.3164
410          0.2483      1.034  0.0002779     0.1119 0.0007857    0.3164
416          0.2483      1.034  0.0002779     0.1119 0.0007857    0.3164
422          0.2483      1.034  0.0002779     0.1119 0.0007857    0.3164
429          0.2483      1.034  0.0002779     0.1119 0.0007857    0.3164
436          0.2483      1.034  0.0002779     0.1119 0.0007857    0.3164
443          0.2483      1.034  0.0002779     0.1119 0.0007857    0.3164
450          0.2483      1.034  0.0002779     0.1119 0.0007857    0.3164
457          0.2483      1.034  0.0002779     0.1119 0.0007857    0.3164
465          0.2483      1.034  0.0002779     0.1119 0.0007857    0.3164
473          0.2483      1.034  0.0002779     0.1119 0.0007857    0.3164
480          0.2483      1.034  0.0002779     0.1119 0.0007857    0.3164
488          0.2483      1.034  0.0002779     0.1119 0.0007857    0.3164
497          0.2483      1.034  0.0002779     0.1119 0.0007857    0.3164
506          0.2483      1.034  0.0002779     0.1119 0.0007857    0.3164
515          0.2483      1.034  0.0002779     0.1119 0.0007857    0.3164
524          0.2483      1.034  0.0002779     0.1119 0.0007857    0.3164
532          0.2483      1.034  0.0002779     0.1119 0.0007857    0.3164
541          0.2483      1.034  0.0002779     0.1119 0.0007857    0.3164
549          0.2483      1.034  0.0002779     0.1119 0.0007857    0.3164
558          0.2483      1.034  0.0002779     0.1119 0.0007857    0.3164
566          0.2483      1.034  0.0002779     0.1119 0.0007857    0.3164
409          0.2483      1.034   0.000282     0.1136 0.0007965    0.3208
415          0.2483      1.034  0.0002879      0.116 0.0008122    0.3271
421          0.2483      1.034  0.0002892     0.1165 0.0008155    0.3285
428          0.2482      1.034  0.0002895     0.1166 0.0008163    0.3288
435          0.2482      1.034  0.0002897     0.1167 0.0008168     0.329
442          0.2482      1.034  0.0002898     0.1167 0.0008172    0.3292
449          0.2482      1.034  0.0002899     0.1168 0.0008175    0.3293
456          0.2482      1.034  0.0002901     0.1169 0.0008179    0.3295
464          0.2482      1.034  0.0002902     0.1169 0.0008183    0.3296
472          0.2482      1.034  0.0002904      0.117 0.0008187    0.3298
479          0.2482      1.034  0.0002906      0.117 0.0008192      0.33
487          0.2482      1.034  0.0002907     0.1171 0.0008196    0.3302
496          0.2482      1.034  0.0002911     0.1173 0.0008207    0.3306
505          0.2482      1.033  0.0002998     0.1208 0.0008442    0.3402
514          0.2481      1.033  0.0003009     0.1213 0.0008476    0.3416
523          0.2481      1.033  0.0003015     0.1215 0.0008494    0.3423
531          0.2481      1.033  0.0003016     0.1216 0.0008497    0.3424
540          0.2481      1.033  0.0003017     0.1216 0.0008499    0.3425
548          0.2481      1.033  0.0003018     0.1216 0.0008501    0.3426
557          0.2481      1.033  0.0003018     0.1216 0.0008503    0.3427
565          0.2481      1.033  0.0003019     0.1217 0.0008505    0.3428
572          0.2481      1.033  0.0003019     0.1217 0.0008507    0.3428
578          0.2481      1.033  0.0003023     0.1218 0.0008517    0.3432
586          0.2481      1.033  0.0003028      0.122 0.0008536     0.344
594          0.2481      1.033  0.0003054     0.1231  0.000863    0.3478
603          0.2481      1.033  0.0003104     0.1251 0.0008801    0.3548
615           0.248      1.033  0.0003153     0.1271 0.0008966    0.3615
625           0.248      1.033  0.0003164     0.1276  0.000901    0.3633
632           0.248      1.033  0.0003167     0.1277  0.000902    0.3637
638           0.248      1.033  0.0003168     0.1277 0.0009025    0.3639
644           0.248      1.033   0.000317     0.1278  0.000903    0.3641
...
